	24

 O    2.171466   -0.018091    1.351456
 O    2.174842    0.018793   -1.349169
 O   -2.171472    0.018091   -1.351461
 O   -0.000579    1.392713    0.020030
 O   -2.174849   -0.018793    1.349174
 O    0.000586   -1.392713   -0.020031
Sn    2.251158    1.644361    0.022672
Sn   -2.251152   -1.644357   -0.022671
Sn    2.251991   -1.644116   -0.021578
Sn    0.001498    0.026828   -1.895310
Sn   -2.251984    1.644112    0.021577
Sn   -0.001505   -0.026829    1.895311
 O    2.138205   -0.000002    1.263840
 O    2.138206    0.000001   -1.263839
 O   -2.138205    0.000002   -1.263840
 O    0.000000    1.419038    0.000001
 O   -2.138206   -0.000001    1.263839
 O   -0.000000   -1.419038   -0.000001
Sn    2.273506    1.710114    0.000001
Sn   -2.273506   -1.710114   -0.000001
Sn    2.273506   -1.710114   -0.000002
Sn   -0.000000    0.000002   -1.951871
Sn   -2.273506    1.710114    0.000002
Sn    0.000000   -0.000002    1.951871
